<?xml version="1.0" encoding="UTF-8"?>
<routes xmlns:xsi="http://www.w3.org/2001/XMLSchema-instance" 
xsi:noNamespaceSchemaLocation="http://sumo.dlr.de/xsd/routes_file.xsd">
	
<vType id="veh_1" width="1.5" length="3.50" maneuverAngleTimes="10 3.0 4.0,80 1.6 11.0,110 11.0 2.0,170 8.1 3.0,181 3.0 4.0">

</vType>
	
</routes>
