<?xml version="1.0" encoding="UTF-8"?>

<!-- generated on 01/23/22 22:43:58 by Eclipse SUMO netedit Version 1.8.0
<configuration xmlns:xsi="http://www.w3.org/2001/XMLSchema-instance" xsi:noNamespaceSchemaLocation="http://sumo.dlr.de/xsd/netconvertConfiguration.xsd">

    <input>
        <sumo-net-file value="C:\Users\xiej2\Desktop\SUMO_Parking\example\P1\park.net.xml"/>
    </input>

    <output>
        <output-file value="C:\Users\xiej2\Desktop\SUMO_Parking\example\P1\park.net.xml"/>
    </output>

    <processing>
        <geometry.min-radius.fix.railways value="false"/>
        <geometry.max-grade.fix value="false"/>
        <offset.disable-normalization value="true"/>
        <lefthand value="false"/>
    </processing>

    <junctions>
        <no-turnarounds value="true"/>
        <junctions.corner-detail value="5"/>
        <junctions.limit-turn-speed value="5.5"/>
        <rectangular-lane-cut value="false"/>
    </junctions>

    <pedestrian>
        <walkingareas value="false"/>
    </pedestrian>

    <report>
        <aggregate-warnings value="5"/>
    </report>

</configuration>
-->

<net version="1.6" junctionCornerDetail="5" limitTurnSpeed="5.50" xmlns:xsi="http://www.w3.org/2001/XMLSchema-instance" xsi:noNamespaceSchemaLocation="http://sumo.dlr.de/xsd/net_file.xsd">

    <location netOffset="0.00,0.00" convBoundary="0.00,100.00,250.00,250.00" origBoundary="0.00,0.00,250.00,250.00" projParameter="!"/>

    <edge id=":A2_0" function="internal">
        <lane id=":A2_0_0" index="0" speed="3.65" length="4.67" shape="0.00,101.60 -1.20,100.80 -1.60,100.00 -1.20,99.20 0.00,98.40"/>
    </edge>
    <edge id=":B2_0" function="internal">
        <lane id=":B2_0_0" index="0" speed="6.51" length="9.03" shape="48.40,107.20 48.05,104.75 47.00,103.00 45.25,101.95 42.80,101.60"/>
    </edge>
    <edge id=":B2_1" function="internal">
        <lane id=":B2_1_0" index="0" speed="8.00" length="14.19" shape="48.40,107.20 48.95,103.35 50.60,100.60 53.35,98.95 57.20,98.40"/>
    </edge>
    <edge id=":B2_2" function="internal">
        <lane id=":B2_2_0" index="0" speed="3.65" length="4.67" shape="48.40,107.20 49.20,106.00 50.00,105.60 50.80,106.00 51.60,107.20"/>
    </edge>
    <edge id=":B2_3" function="internal">
        <lane id=":B2_3_0" index="0" speed="6.51" length="9.03" shape="57.20,101.60 54.75,101.95 53.00,103.00 51.95,104.75 51.60,107.20"/>
    </edge>
    <edge id=":B2_4" function="internal">
        <lane id=":B2_4_0" index="0" speed="13.89" length="14.40" shape="57.20,101.60 42.80,101.60"/>
    </edge>
    <edge id=":B2_5" function="internal">
        <lane id=":B2_5_0" index="0" speed="3.65" length="2.34" shape="57.20,101.60 56.00,100.80 55.60,100.00"/>
    </edge>
    <edge id=":B2_9" function="internal">
        <lane id=":B2_9_0" index="0" speed="3.65" length="2.34" shape="55.60,100.00 56.00,99.20 57.20,98.40"/>
    </edge>
    <edge id=":B2_6" function="internal">
        <lane id=":B2_6_0" index="0" speed="13.89" length="14.40" shape="42.80,98.40 57.20,98.40"/>
    </edge>
    <edge id=":B2_7" function="internal">
        <lane id=":B2_7_0" index="0" speed="8.00" length="5.93" shape="42.80,98.40 46.65,98.95 48.40,100.00"/>
    </edge>
    <edge id=":B2_8" function="internal">
        <lane id=":B2_8_0" index="0" speed="3.65" length="2.34" shape="42.80,98.40 44.00,99.20 44.40,100.00"/>
    </edge>
    <edge id=":B2_10" function="internal">
        <lane id=":B2_10_0" index="0" speed="8.00" length="8.26" shape="48.40,100.00 49.40,100.60 51.05,103.35 51.60,107.20"/>
    </edge>
    <edge id=":B2_11" function="internal">
        <lane id=":B2_11_0" index="0" speed="3.65" length="2.34" shape="44.40,100.00 44.00,100.80 42.80,101.60"/>
    </edge>
    <edge id=":B3_0" function="internal">
        <lane id=":B3_0_0" index="0" speed="13.89" length="14.40" shape="48.40,157.20 48.40,142.80"/>
    </edge>
    <edge id=":B3_1" function="internal">
        <lane id=":B3_1_0" index="0" speed="8.00" length="5.93" shape="48.40,157.20 48.95,153.35 50.00,151.60"/>
    </edge>
    <edge id=":B3_2" function="internal">
        <lane id=":B3_2_0" index="0" speed="3.65" length="2.34" shape="48.40,157.20 49.20,156.00 50.00,155.60"/>
    </edge>
    <edge id=":B3_9" function="internal">
        <lane id=":B3_9_0" index="0" speed="8.00" length="8.26" shape="50.00,151.60 50.60,150.60 53.35,148.95 57.20,148.40"/>
    </edge>
    <edge id=":B3_10" function="internal">
        <lane id=":B3_10_0" index="0" speed="3.65" length="2.34" shape="50.00,155.60 50.80,156.00 51.60,157.20"/>
    </edge>
    <edge id=":B3_3" function="internal">
        <lane id=":B3_3_0" index="0" speed="6.51" length="9.03" shape="57.20,151.60 54.75,151.95 53.00,153.00 51.95,154.75 51.60,157.20"/>
    </edge>
    <edge id=":B3_4" function="internal">
        <lane id=":B3_4_0" index="0" speed="8.00" length="14.19" shape="57.20,151.60 53.35,151.05 50.60,149.40 48.95,146.65 48.40,142.80"/>
    </edge>
    <edge id=":B3_5" function="internal">
        <lane id=":B3_5_0" index="0" speed="3.65" length="4.67" shape="57.20,151.60 56.00,150.80 55.60,150.00 56.00,149.20 57.20,148.40"/>
    </edge>
    <edge id=":B3_6" function="internal">
        <lane id=":B3_6_0" index="0" speed="6.51" length="9.03" shape="51.60,142.80 51.95,145.25 53.00,147.00 54.75,148.05 57.20,148.40"/>
    </edge>
    <edge id=":B3_7" function="internal">
        <lane id=":B3_7_0" index="0" speed="13.89" length="14.40" shape="51.60,142.80 51.60,157.20"/>
    </edge>
    <edge id=":B3_8" function="internal">
        <lane id=":B3_8_0" index="0" speed="3.65" length="2.34" shape="51.60,142.80 50.80,144.00 50.00,144.40"/>
    </edge>
    <edge id=":B3_11" function="internal">
        <lane id=":B3_11_0" index="0" speed="3.65" length="2.34" shape="50.00,144.40 49.20,144.00 48.40,142.80"/>
    </edge>
    <edge id=":B4_0" function="internal">
        <lane id=":B4_0_0" index="0" speed="13.89" length="14.40" shape="48.40,207.20 48.40,192.80"/>
    </edge>
    <edge id=":B4_1" function="internal">
        <lane id=":B4_1_0" index="0" speed="8.00" length="5.93" shape="48.40,207.20 48.95,203.35 50.00,201.60"/>
    </edge>
    <edge id=":B4_2" function="internal">
        <lane id=":B4_2_0" index="0" speed="3.65" length="2.34" shape="48.40,207.20 49.20,206.00 50.00,205.60"/>
    </edge>
    <edge id=":B4_9" function="internal">
        <lane id=":B4_9_0" index="0" speed="8.00" length="8.26" shape="50.00,201.60 50.60,200.60 53.35,198.95 57.20,198.40"/>
    </edge>
    <edge id=":B4_10" function="internal">
        <lane id=":B4_10_0" index="0" speed="3.65" length="2.34" shape="50.00,205.60 50.80,206.00 51.60,207.20"/>
    </edge>
    <edge id=":B4_3" function="internal">
        <lane id=":B4_3_0" index="0" speed="6.51" length="9.03" shape="57.20,201.60 54.75,201.95 53.00,203.00 51.95,204.75 51.60,207.20"/>
    </edge>
    <edge id=":B4_4" function="internal">
        <lane id=":B4_4_0" index="0" speed="8.00" length="14.19" shape="57.20,201.60 53.35,201.05 50.60,199.40 48.95,196.65 48.40,192.80"/>
    </edge>
    <edge id=":B4_5" function="internal">
        <lane id=":B4_5_0" index="0" speed="3.65" length="4.67" shape="57.20,201.60 56.00,200.80 55.60,200.00 56.00,199.20 57.20,198.40"/>
    </edge>
    <edge id=":B4_6" function="internal">
        <lane id=":B4_6_0" index="0" speed="6.51" length="9.03" shape="51.60,192.80 51.95,195.25 53.00,197.00 54.75,198.05 57.20,198.40"/>
    </edge>
    <edge id=":B4_7" function="internal">
        <lane id=":B4_7_0" index="0" speed="13.89" length="14.40" shape="51.60,192.80 51.60,207.20"/>
    </edge>
    <edge id=":B4_8" function="internal">
        <lane id=":B4_8_0" index="0" speed="3.65" length="2.34" shape="51.60,192.80 50.80,194.00 50.00,194.40"/>
    </edge>
    <edge id=":B4_11" function="internal">
        <lane id=":B4_11_0" index="0" speed="3.65" length="2.34" shape="50.00,194.40 49.20,194.00 48.40,192.80"/>
    </edge>
    <edge id=":B5_0" function="internal">
        <lane id=":B5_0_0" index="0" speed="13.89" length="14.40" shape="57.20,251.60 42.80,251.60"/>
    </edge>
    <edge id=":B5_1" function="internal">
        <lane id=":B5_1_0" index="0" speed="8.00" length="5.93" shape="57.20,251.60 53.35,251.05 51.60,250.00"/>
    </edge>
    <edge id=":B5_2" function="internal">
        <lane id=":B5_2_0" index="0" speed="3.65" length="2.34" shape="57.20,251.60 56.00,250.80 55.60,250.00"/>
    </edge>
    <edge id=":B5_9" function="internal">
        <lane id=":B5_9_0" index="0" speed="8.00" length="8.26" shape="51.60,250.00 50.60,249.40 48.95,246.65 48.40,242.80"/>
    </edge>
    <edge id=":B5_10" function="internal">
        <lane id=":B5_10_0" index="0" speed="3.65" length="2.34" shape="55.60,250.00 56.00,249.20 57.20,248.40"/>
    </edge>
    <edge id=":B5_3" function="internal">
        <lane id=":B5_3_0" index="0" speed="6.51" length="9.03" shape="51.60,242.80 51.95,245.25 53.00,247.00 54.75,248.05 57.20,248.40"/>
    </edge>
    <edge id=":B5_4" function="internal">
        <lane id=":B5_4_0" index="0" speed="8.00" length="14.19" shape="51.60,242.80 51.05,246.65 49.40,249.40 46.65,251.05 42.80,251.60"/>
    </edge>
    <edge id=":B5_5" function="internal">
        <lane id=":B5_5_0" index="0" speed="3.65" length="4.67" shape="51.60,242.80 50.80,244.00 50.00,244.40 49.20,244.00 48.40,242.80"/>
    </edge>
    <edge id=":B5_6" function="internal">
        <lane id=":B5_6_0" index="0" speed="6.51" length="9.03" shape="42.80,248.40 45.25,248.05 47.00,247.00 48.05,245.25 48.40,242.80"/>
    </edge>
    <edge id=":B5_7" function="internal">
        <lane id=":B5_7_0" index="0" speed="13.89" length="14.40" shape="42.80,248.40 57.20,248.40"/>
    </edge>
    <edge id=":B5_8" function="internal">
        <lane id=":B5_8_0" index="0" speed="3.65" length="2.34" shape="42.80,248.40 44.00,249.20 44.40,250.00"/>
    </edge>
    <edge id=":B5_11" function="internal">
        <lane id=":B5_11_0" index="0" speed="3.65" length="2.34" shape="44.40,250.00 44.00,250.80 42.80,251.60"/>
    </edge>
    <edge id=":C2_0" function="internal">
        <lane id=":C2_0_0" index="0" speed="6.51" length="9.03" shape="98.40,107.20 98.05,104.75 97.00,103.00 95.25,101.95 92.80,101.60"/>
    </edge>
    <edge id=":C2_1" function="internal">
        <lane id=":C2_1_0" index="0" speed="8.00" length="14.19" shape="98.40,107.20 98.95,103.35 100.60,100.60 103.35,98.95 107.20,98.40"/>
    </edge>
    <edge id=":C2_2" function="internal">
        <lane id=":C2_2_0" index="0" speed="3.65" length="4.67" shape="98.40,107.20 99.20,106.00 100.00,105.60 100.80,106.00 101.60,107.20"/>
    </edge>
    <edge id=":C2_3" function="internal">
        <lane id=":C2_3_0" index="0" speed="6.51" length="9.03" shape="107.20,101.60 104.75,101.95 103.00,103.00 101.95,104.75 101.60,107.20"/>
    </edge>
    <edge id=":C2_4" function="internal">
        <lane id=":C2_4_0" index="0" speed="13.89" length="14.40" shape="107.20,101.60 92.80,101.60"/>
    </edge>
    <edge id=":C2_5" function="internal">
        <lane id=":C2_5_0" index="0" speed="3.65" length="2.34" shape="107.20,101.60 106.00,100.80 105.60,100.00"/>
    </edge>
    <edge id=":C2_9" function="internal">
        <lane id=":C2_9_0" index="0" speed="3.65" length="2.34" shape="105.60,100.00 106.00,99.20 107.20,98.40"/>
    </edge>
    <edge id=":C2_6" function="internal">
        <lane id=":C2_6_0" index="0" speed="13.89" length="14.40" shape="92.80,98.40 107.20,98.40"/>
    </edge>
    <edge id=":C2_7" function="internal">
        <lane id=":C2_7_0" index="0" speed="8.00" length="5.93" shape="92.80,98.40 96.65,98.95 98.40,100.00"/>
    </edge>
    <edge id=":C2_8" function="internal">
        <lane id=":C2_8_0" index="0" speed="3.65" length="2.34" shape="92.80,98.40 94.00,99.20 94.40,100.00"/>
    </edge>
    <edge id=":C2_10" function="internal">
        <lane id=":C2_10_0" index="0" speed="8.00" length="8.26" shape="98.40,100.00 99.40,100.60 101.05,103.35 101.60,107.20"/>
    </edge>
    <edge id=":C2_11" function="internal">
        <lane id=":C2_11_0" index="0" speed="3.65" length="2.34" shape="94.40,100.00 94.00,100.80 92.80,101.60"/>
    </edge>
    <edge id=":C3_0" function="internal">
        <lane id=":C3_0_0" index="0" speed="6.51" length="9.03" shape="98.40,157.20 98.05,154.75 97.00,153.00 95.25,151.95 92.80,151.60"/>
    </edge>
    <edge id=":C3_1" function="internal">
        <lane id=":C3_1_0" index="0" speed="13.89" length="14.40" shape="98.40,157.20 98.40,142.80"/>
    </edge>
    <edge id=":C3_2" function="internal">
        <lane id=":C3_2_0" index="0" speed="8.00" length="5.93" shape="98.40,157.20 98.95,153.35 100.00,151.60"/>
    </edge>
    <edge id=":C3_3" function="internal">
        <lane id=":C3_3_0" index="0" speed="3.65" length="2.34" shape="98.40,157.20 99.20,156.00 100.00,155.60"/>
    </edge>
    <edge id=":C3_16" function="internal">
        <lane id=":C3_16_0" index="0" speed="8.00" length="8.26" shape="100.00,151.60 100.60,150.60 103.35,148.95 107.20,148.40"/>
    </edge>
    <edge id=":C3_17" function="internal">
        <lane id=":C3_17_0" index="0" speed="3.65" length="2.34" shape="100.00,155.60 100.80,156.00 101.60,157.20"/>
    </edge>
    <edge id=":C3_4" function="internal">
        <lane id=":C3_4_0" index="0" speed="6.51" length="9.03" shape="107.20,151.60 104.75,151.95 103.00,153.00 101.95,154.75 101.60,157.20"/>
    </edge>
    <edge id=":C3_5" function="internal">
        <lane id=":C3_5_0" index="0" speed="13.89" length="14.40" shape="107.20,151.60 92.80,151.60"/>
    </edge>
    <edge id=":C3_6" function="internal">
        <lane id=":C3_6_0" index="0" speed="8.00" length="14.19" shape="107.20,151.60 103.35,151.05 100.60,149.40 98.95,146.65 98.40,142.80"/>
    </edge>
    <edge id=":C3_7" function="internal">
        <lane id=":C3_7_0" index="0" speed="3.65" length="4.67" shape="107.20,151.60 106.00,150.80 105.60,150.00 106.00,149.20 107.20,148.40"/>
    </edge>
    <edge id=":C3_8" function="internal">
        <lane id=":C3_8_0" index="0" speed="6.51" length="9.03" shape="101.60,142.80 101.95,145.25 103.00,147.00 104.75,148.05 107.20,148.40"/>
    </edge>
    <edge id=":C3_9" function="internal">
        <lane id=":C3_9_0" index="0" speed="13.89" length="14.40" shape="101.60,142.80 101.60,157.20"/>
    </edge>
    <edge id=":C3_10" function="internal">
        <lane id=":C3_10_0" index="0" speed="8.00" length="5.93" shape="101.60,142.80 101.05,146.65 100.00,148.40"/>
    </edge>
    <edge id=":C3_11" function="internal">
        <lane id=":C3_11_0" index="0" speed="3.65" length="2.34" shape="101.60,142.80 100.80,144.00 100.00,144.40"/>
    </edge>
    <edge id=":C3_18" function="internal">
        <lane id=":C3_18_0" index="0" speed="8.00" length="8.26" shape="100.00,148.40 99.40,149.40 96.65,151.05 92.80,151.60"/>
    </edge>
    <edge id=":C3_19" function="internal">
        <lane id=":C3_19_0" index="0" speed="3.65" length="2.34" shape="100.00,144.40 99.20,144.00 98.40,142.80"/>
    </edge>
    <edge id=":C3_12" function="internal">
        <lane id=":C3_12_0" index="0" speed="6.51" length="9.03" shape="92.80,148.40 95.25,148.05 97.00,147.00 98.05,145.25 98.40,142.80"/>
    </edge>
    <edge id=":C3_13" function="internal">
        <lane id=":C3_13_0" index="0" speed="13.89" length="14.40" shape="92.80,148.40 107.20,148.40"/>
    </edge>
    <edge id=":C3_14" function="internal">
        <lane id=":C3_14_0" index="0" speed="8.00" length="14.19" shape="92.80,148.40 96.65,148.95 99.40,150.60 101.05,153.35 101.60,157.20"/>
    </edge>
    <edge id=":C3_15" function="internal">
        <lane id=":C3_15_0" index="0" speed="3.65" length="4.67" shape="92.80,148.40 94.00,149.20 94.40,150.00 94.00,150.80 92.80,151.60"/>
    </edge>
    <edge id=":C4_0" function="internal">
        <lane id=":C4_0_0" index="0" speed="6.51" length="9.03" shape="98.40,207.20 98.05,204.75 97.00,203.00 95.25,201.95 92.80,201.60"/>
    </edge>
    <edge id=":C4_1" function="internal">
        <lane id=":C4_1_0" index="0" speed="13.89" length="14.40" shape="98.40,207.20 98.40,192.80"/>
    </edge>
    <edge id=":C4_2" function="internal">
        <lane id=":C4_2_0" index="0" speed="8.00" length="5.93" shape="98.40,207.20 98.95,203.35 100.00,201.60"/>
    </edge>
    <edge id=":C4_3" function="internal">
        <lane id=":C4_3_0" index="0" speed="3.65" length="2.34" shape="98.40,207.20 99.20,206.00 100.00,205.60"/>
    </edge>
    <edge id=":C4_16" function="internal">
        <lane id=":C4_16_0" index="0" speed="8.00" length="8.26" shape="100.00,201.60 100.60,200.60 103.35,198.95 107.20,198.40"/>
    </edge>
    <edge id=":C4_17" function="internal">
        <lane id=":C4_17_0" index="0" speed="3.65" length="2.34" shape="100.00,205.60 100.80,206.00 101.60,207.20"/>
    </edge>
    <edge id=":C4_4" function="internal">
        <lane id=":C4_4_0" index="0" speed="6.51" length="9.03" shape="107.20,201.60 104.75,201.95 103.00,203.00 101.95,204.75 101.60,207.20"/>
    </edge>
    <edge id=":C4_5" function="internal">
        <lane id=":C4_5_0" index="0" speed="13.89" length="14.40" shape="107.20,201.60 92.80,201.60"/>
    </edge>
    <edge id=":C4_6" function="internal">
        <lane id=":C4_6_0" index="0" speed="8.00" length="14.19" shape="107.20,201.60 103.35,201.05 100.60,199.40 98.95,196.65 98.40,192.80"/>
    </edge>
    <edge id=":C4_7" function="internal">
        <lane id=":C4_7_0" index="0" speed="3.65" length="4.67" shape="107.20,201.60 106.00,200.80 105.60,200.00 106.00,199.20 107.20,198.40"/>
    </edge>
    <edge id=":C4_8" function="internal">
        <lane id=":C4_8_0" index="0" speed="6.51" length="9.03" shape="101.60,192.80 101.95,195.25 103.00,197.00 104.75,198.05 107.20,198.40"/>
    </edge>
    <edge id=":C4_9" function="internal">
        <lane id=":C4_9_0" index="0" speed="13.89" length="14.40" shape="101.60,192.80 101.60,207.20"/>
    </edge>
    <edge id=":C4_10" function="internal">
        <lane id=":C4_10_0" index="0" speed="8.00" length="5.93" shape="101.60,192.80 101.05,196.65 100.00,198.40"/>
    </edge>
    <edge id=":C4_11" function="internal">
        <lane id=":C4_11_0" index="0" speed="3.65" length="2.34" shape="101.60,192.80 100.80,194.00 100.00,194.40"/>
    </edge>
    <edge id=":C4_18" function="internal">
        <lane id=":C4_18_0" index="0" speed="8.00" length="8.26" shape="100.00,198.40 99.40,199.40 96.65,201.05 92.80,201.60"/>
    </edge>
    <edge id=":C4_19" function="internal">
        <lane id=":C4_19_0" index="0" speed="3.65" length="2.34" shape="100.00,194.40 99.20,194.00 98.40,192.80"/>
    </edge>
    <edge id=":C4_12" function="internal">
        <lane id=":C4_12_0" index="0" speed="6.51" length="9.03" shape="92.80,198.40 95.25,198.05 97.00,197.00 98.05,195.25 98.40,192.80"/>
    </edge>
    <edge id=":C4_13" function="internal">
        <lane id=":C4_13_0" index="0" speed="13.89" length="14.40" shape="92.80,198.40 107.20,198.40"/>
    </edge>
    <edge id=":C4_14" function="internal">
        <lane id=":C4_14_0" index="0" speed="8.00" length="14.19" shape="92.80,198.40 96.65,198.95 99.40,200.60 101.05,203.35 101.60,207.20"/>
    </edge>
    <edge id=":C4_15" function="internal">
        <lane id=":C4_15_0" index="0" speed="3.65" length="4.67" shape="92.80,198.40 94.00,199.20 94.40,200.00 94.00,200.80 92.80,201.60"/>
    </edge>
    <edge id=":C5_0" function="internal">
        <lane id=":C5_0_0" index="0" speed="13.89" length="14.40" shape="107.20,251.60 92.80,251.60"/>
    </edge>
    <edge id=":C5_1" function="internal">
        <lane id=":C5_1_0" index="0" speed="8.00" length="5.93" shape="107.20,251.60 103.35,251.05 101.60,250.00"/>
    </edge>
    <edge id=":C5_2" function="internal">
        <lane id=":C5_2_0" index="0" speed="3.65" length="2.34" shape="107.20,251.60 106.00,250.80 105.60,250.00"/>
    </edge>
    <edge id=":C5_9" function="internal">
        <lane id=":C5_9_0" index="0" speed="8.00" length="8.26" shape="101.60,250.00 100.60,249.40 98.95,246.65 98.40,242.80"/>
    </edge>
    <edge id=":C5_10" function="internal">
        <lane id=":C5_10_0" index="0" speed="3.65" length="2.34" shape="105.60,250.00 106.00,249.20 107.20,248.40"/>
    </edge>
    <edge id=":C5_3" function="internal">
        <lane id=":C5_3_0" index="0" speed="6.51" length="9.03" shape="101.60,242.80 101.95,245.25 103.00,247.00 104.75,248.05 107.20,248.40"/>
    </edge>
    <edge id=":C5_4" function="internal">
        <lane id=":C5_4_0" index="0" speed="8.00" length="14.19" shape="101.60,242.80 101.05,246.65 99.40,249.40 96.65,251.05 92.80,251.60"/>
    </edge>
    <edge id=":C5_5" function="internal">
        <lane id=":C5_5_0" index="0" speed="3.65" length="4.67" shape="101.60,242.80 100.80,244.00 100.00,244.40 99.20,244.00 98.40,242.80"/>
    </edge>
    <edge id=":C5_6" function="internal">
        <lane id=":C5_6_0" index="0" speed="6.51" length="9.03" shape="92.80,248.40 95.25,248.05 97.00,247.00 98.05,245.25 98.40,242.80"/>
    </edge>
    <edge id=":C5_7" function="internal">
        <lane id=":C5_7_0" index="0" speed="13.89" length="14.40" shape="92.80,248.40 107.20,248.40"/>
    </edge>
    <edge id=":C5_8" function="internal">
        <lane id=":C5_8_0" index="0" speed="3.65" length="2.34" shape="92.80,248.40 94.00,249.20 94.40,250.00"/>
    </edge>
    <edge id=":C5_11" function="internal">
        <lane id=":C5_11_0" index="0" speed="3.65" length="2.34" shape="94.40,250.00 94.00,250.80 92.80,251.60"/>
    </edge>
    <edge id=":D2_0" function="internal">
        <lane id=":D2_0_0" index="0" speed="6.51" length="9.03" shape="148.40,107.20 148.05,104.75 147.00,103.00 145.25,101.95 142.80,101.60"/>
    </edge>
    <edge id=":D2_1" function="internal">
        <lane id=":D2_1_0" index="0" speed="8.00" length="14.19" shape="148.40,107.20 148.95,103.35 150.60,100.60 153.35,98.95 157.20,98.40"/>
    </edge>
    <edge id=":D2_2" function="internal">
        <lane id=":D2_2_0" index="0" speed="3.65" length="4.67" shape="148.40,107.20 149.20,106.00 150.00,105.60 150.80,106.00 151.60,107.20"/>
    </edge>
    <edge id=":D2_3" function="internal">
        <lane id=":D2_3_0" index="0" speed="6.51" length="9.03" shape="157.20,101.60 154.75,101.95 153.00,103.00 151.95,104.75 151.60,107.20"/>
    </edge>
    <edge id=":D2_4" function="internal">
        <lane id=":D2_4_0" index="0" speed="13.89" length="14.40" shape="157.20,101.60 142.80,101.60"/>
    </edge>
    <edge id=":D2_5" function="internal">
        <lane id=":D2_5_0" index="0" speed="3.65" length="2.34" shape="157.20,101.60 156.00,100.80 155.60,100.00"/>
    </edge>
    <edge id=":D2_9" function="internal">
        <lane id=":D2_9_0" index="0" speed="3.65" length="2.34" shape="155.60,100.00 156.00,99.20 157.20,98.40"/>
    </edge>
    <edge id=":D2_6" function="internal">
        <lane id=":D2_6_0" index="0" speed="13.89" length="14.40" shape="142.80,98.40 157.20,98.40"/>
    </edge>
    <edge id=":D2_7" function="internal">
        <lane id=":D2_7_0" index="0" speed="8.00" length="5.93" shape="142.80,98.40 146.65,98.95 148.40,100.00"/>
    </edge>
    <edge id=":D2_8" function="internal">
        <lane id=":D2_8_0" index="0" speed="3.65" length="2.34" shape="142.80,98.40 144.00,99.20 144.40,100.00"/>
    </edge>
    <edge id=":D2_10" function="internal">
        <lane id=":D2_10_0" index="0" speed="8.00" length="8.26" shape="148.40,100.00 149.40,100.60 151.05,103.35 151.60,107.20"/>
    </edge>
    <edge id=":D2_11" function="internal">
        <lane id=":D2_11_0" index="0" speed="3.65" length="2.34" shape="144.40,100.00 144.00,100.80 142.80,101.60"/>
    </edge>
    <edge id=":D3_0" function="internal">
        <lane id=":D3_0_0" index="0" speed="6.51" length="9.03" shape="148.40,157.20 148.05,154.75 147.00,153.00 145.25,151.95 142.80,151.60"/>
    </edge>
    <edge id=":D3_1" function="internal">
        <lane id=":D3_1_0" index="0" speed="13.89" length="14.40" shape="148.40,157.20 148.40,142.80"/>
    </edge>
    <edge id=":D3_2" function="internal">
        <lane id=":D3_2_0" index="0" speed="8.00" length="5.93" shape="148.40,157.20 148.95,153.35 150.00,151.60"/>
    </edge>
    <edge id=":D3_3" function="internal">
        <lane id=":D3_3_0" index="0" speed="3.65" length="2.34" shape="148.40,157.20 149.20,156.00 150.00,155.60"/>
    </edge>
    <edge id=":D3_16" function="internal">
        <lane id=":D3_16_0" index="0" speed="8.00" length="8.26" shape="150.00,151.60 150.60,150.60 153.35,148.95 157.20,148.40"/>
    </edge>
    <edge id=":D3_17" function="internal">
        <lane id=":D3_17_0" index="0" speed="3.65" length="2.34" shape="150.00,155.60 150.80,156.00 151.60,157.20"/>
    </edge>
    <edge id=":D3_4" function="internal">
        <lane id=":D3_4_0" index="0" speed="6.51" length="9.03" shape="157.20,151.60 154.75,151.95 153.00,153.00 151.95,154.75 151.60,157.20"/>
    </edge>
    <edge id=":D3_5" function="internal">
        <lane id=":D3_5_0" index="0" speed="13.89" length="14.40" shape="157.20,151.60 142.80,151.60"/>
    </edge>
    <edge id=":D3_6" function="internal">
        <lane id=":D3_6_0" index="0" speed="8.00" length="14.19" shape="157.20,151.60 153.35,151.05 150.60,149.40 148.95,146.65 148.40,142.80"/>
    </edge>
    <edge id=":D3_7" function="internal">
        <lane id=":D3_7_0" index="0" speed="3.65" length="4.67" shape="157.20,151.60 156.00,150.80 155.60,150.00 156.00,149.20 157.20,148.40"/>
    </edge>
    <edge id=":D3_8" function="internal">
        <lane id=":D3_8_0" index="0" speed="6.51" length="9.03" shape="151.60,142.80 151.95,145.25 153.00,147.00 154.75,148.05 157.20,148.40"/>
    </edge>
    <edge id=":D3_9" function="internal">
        <lane id=":D3_9_0" index="0" speed="13.89" length="14.40" shape="151.60,142.80 151.60,157.20"/>
    </edge>
    <edge id=":D3_10" function="internal">
        <lane id=":D3_10_0" index="0" speed="8.00" length="5.93" shape="151.60,142.80 151.05,146.65 150.00,148.40"/>
    </edge>
    <edge id=":D3_11" function="internal">
        <lane id=":D3_11_0" index="0" speed="3.65" length="2.34" shape="151.60,142.80 150.80,144.00 150.00,144.40"/>
    </edge>
    <edge id=":D3_18" function="internal">
        <lane id=":D3_18_0" index="0" speed="8.00" length="8.26" shape="150.00,148.40 149.40,149.40 146.65,151.05 142.80,151.60"/>
    </edge>
    <edge id=":D3_19" function="internal">
        <lane id=":D3_19_0" index="0" speed="3.65" length="2.34" shape="150.00,144.40 149.20,144.00 148.40,142.80"/>
    </edge>
    <edge id=":D3_12" function="internal">
        <lane id=":D3_12_0" index="0" speed="6.51" length="9.03" shape="142.80,148.40 145.25,148.05 147.00,147.00 148.05,145.25 148.40,142.80"/>
    </edge>
    <edge id=":D3_13" function="internal">
        <lane id=":D3_13_0" index="0" speed="13.89" length="14.40" shape="142.80,148.40 157.20,148.40"/>
    </edge>
    <edge id=":D3_14" function="internal">
        <lane id=":D3_14_0" index="0" speed="8.00" length="14.19" shape="142.80,148.40 146.65,148.95 149.40,150.60 151.05,153.35 151.60,157.20"/>
    </edge>
    <edge id=":D3_15" function="internal">
        <lane id=":D3_15_0" index="0" speed="3.65" length="4.67" shape="142.80,148.40 144.00,149.20 144.40,150.00 144.00,150.80 142.80,151.60"/>
    </edge>
    <edge id=":D4_0" function="internal">
        <lane id=":D4_0_0" index="0" speed="6.51" length="9.03" shape="148.40,207.20 148.05,204.75 147.00,203.00 145.25,201.95 142.80,201.60"/>
    </edge>
    <edge id=":D4_1" function="internal">
        <lane id=":D4_1_0" index="0" speed="13.89" length="14.40" shape="148.40,207.20 148.40,192.80"/>
    </edge>
    <edge id=":D4_2" function="internal">
        <lane id=":D4_2_0" index="0" speed="8.00" length="5.93" shape="148.40,207.20 148.95,203.35 150.00,201.60"/>
    </edge>
    <edge id=":D4_3" function="internal">
        <lane id=":D4_3_0" index="0" speed="3.65" length="2.34" shape="148.40,207.20 149.20,206.00 150.00,205.60"/>
    </edge>
    <edge id=":D4_16" function="internal">
        <lane id=":D4_16_0" index="0" speed="8.00" length="8.26" shape="150.00,201.60 150.60,200.60 153.35,198.95 157.20,198.40"/>
    </edge>
    <edge id=":D4_17" function="internal">
        <lane id=":D4_17_0" index="0" speed="3.65" length="2.34" shape="150.00,205.60 150.80,206.00 151.60,207.20"/>
    </edge>
    <edge id=":D4_4" function="internal">
        <lane id=":D4_4_0" index="0" speed="6.51" length="9.03" shape="157.20,201.60 154.75,201.95 153.00,203.00 151.95,204.75 151.60,207.20"/>
    </edge>
    <edge id=":D4_5" function="internal">
        <lane id=":D4_5_0" index="0" speed="13.89" length="14.40" shape="157.20,201.60 142.80,201.60"/>
    </edge>
    <edge id=":D4_6" function="internal">
        <lane id=":D4_6_0" index="0" speed="8.00" length="14.19" shape="157.20,201.60 153.35,201.05 150.60,199.40 148.95,196.65 148.40,192.80"/>
    </edge>
    <edge id=":D4_7" function="internal">
        <lane id=":D4_7_0" index="0" speed="3.65" length="4.67" shape="157.20,201.60 156.00,200.80 155.60,200.00 156.00,199.20 157.20,198.40"/>
    </edge>
    <edge id=":D4_8" function="internal">
        <lane id=":D4_8_0" index="0" speed="6.51" length="9.03" shape="151.60,192.80 151.95,195.25 153.00,197.00 154.75,198.05 157.20,198.40"/>
    </edge>
    <edge id=":D4_9" function="internal">
        <lane id=":D4_9_0" index="0" speed="13.89" length="14.40" shape="151.60,192.80 151.60,207.20"/>
    </edge>
    <edge id=":D4_10" function="internal">
        <lane id=":D4_10_0" index="0" speed="8.00" length="5.93" shape="151.60,192.80 151.05,196.65 150.00,198.40"/>
    </edge>
    <edge id=":D4_11" function="internal">
        <lane id=":D4_11_0" index="0" speed="3.65" length="2.34" shape="151.60,192.80 150.80,194.00 150.00,194.40"/>
    </edge>
    <edge id=":D4_18" function="internal">
        <lane id=":D4_18_0" index="0" speed="8.00" length="8.26" shape="150.00,198.40 149.40,199.40 146.65,201.05 142.80,201.60"/>
    </edge>
    <edge id=":D4_19" function="internal">